FoamFile
{
    version     2.0;
    format      ascii;
    class       dictionary;
    object      fvSolution;
}

solvers
{
    p
    {
        solver          GAMG;
        tolerance       1e-07;
        relTol          0.01;
        smoother        GaussSeidel;
    }
    U
    {
        solver          smoothSolver;
        tolerance       1e-07;
        relTol          0.1;
        smoother        symGaussSeidel;
        nSweeps         1;
    }
    k
    {
        solver          smoothSolver;
        tolerance       1e-12;
        relTol          0.1;
        smoother        symGaussSeidel;
    }
    omega
    {
        solver          smoothSolver;
        tolerance       1e-12;
        relTol          0.1;
        smoother        symGaussSeidel;
    }
}

SIMPLE
{
    nNonOrthogonalCorrectors 0;
    residualControl
    {
        p               1e-5;
        U               1e-5;
        "(k|omega)"     1e-5;
    }
}

relaxationFactors
{
    fields
    {
        p               0.3;
    }
    equations
    {
        U               0.7;
        k               0.7;
        omega           0.7;
    }
}
