FoamFile
{
    version     2.0;
    format      ascii;
    class       volScalarField;
    object      nut;
}

dimensions      [0 2 -1 0 0 0 0];

internalField   uniform 0.00545;

boundaryField
{
    cylinder
    {
        type            nutkWallFunction;
        value           uniform 0.00545;
    }
    defaultFaces
    {
        type            empty;
    }
    down
    {
        type            calculated;
        value           uniform 0.00545;
    }
    right
    {
        type            calculated;
        value           uniform 0.00545;
    }
    up
    {
        type            calculated;
        value           uniform 0.00545;
    }
    left
    {
        type            calculated;
        value           uniform 0.00545;
    }
}
