FoamFile
{
    version     2.0;
    format      ascii;
    class       volScalarField;
    object      epsilon;
}

internalField   uniform 0.001568;

boundaryField
{
    left
    {
        type            turbulentMixingLengthDissipationRateInlet;
        mixingLength    0.07;
        U               U;
        Cmu             0.09;
        value           uniform 0.001568;
    }
    right
    {
        type            inletOutlet;
        inletValue      uniform 0.001568;
        value           uniform 0.001568;
    }
    up
    {
        type            symmetryPlane;
    }
    down
    {
        type            symmetryPlane;
    }
    cylinder
    {
        type            epsilonWallFunction;
        value           uniform 0.001568;
    }
    defaultFaces
    {
        type            empty;
    }
}