FoamFile
{
    version     2.0;
    format      ascii;
    class       volScalarField;
    object      nut;
}

internalField   uniform 0;

boundaryField
{
    left
    {
        type            calculated;
        value           uniform 0;
    }
    right
    {
        type            calculated;
        value           uniform 0;
    }
    up
    {
        type            symmetryPlane;
    }
    down
    {
        type            symmetryPlane;
    }
    cylinder
    {
        type            nutkWallFunction;
        value           uniform 0;
    }
    defaultFaces
    {
        type            empty;
    }
}