/*--------------------------------*- C++ -*----------------------------------*\
| =========                 |                                                 |
| \\      /  F ield         | OpenFOAM: The Open Source CFD Toolbox           |
|  \\    /   O peration     | Version:  2406                                  |
|   \\  /    A nd           | Website:  www.openfoam.com                      |
|    \\/     M anipulation  |                                                 |
\*---------------------------------------------------------------------------*/
FoamFile
{
    version     2.0;
    format      ascii;
    arch        "LSB;label=32;scalar=64";
    class       polyBoundaryMesh;
    location    "constant/polyMesh";
    object      boundary;
}
// * * * * * * * * * * * * * * * * * * * * * * * * * * * * * * * * * * * * * //

4
(
    topAndBottom
    {
        type            wall;
        inGroups        1(wall);
        nFaces          1050;
        startFace       228225;
    }
    frontAndBack
    {
        type            wall;
        inGroups        1(wall);
        nFaces          10500;
        startFace       229275;
    }
    hot
    {
        type            wall;
        inGroups        1(wall);
        nFaces          2250;
        startFace       239775;
    }
    cold
    {
        type            wall;
        inGroups        1(wall);
        nFaces          2250;
        startFace       242025;
    }
)

// ************************************************************************* //
