FoamFile
{
    version     2.0;
    format      ascii;
    class       dictionary;
    object      thermophysicalProperties;
}

thermoType
{
    type            hePsiThermo;
    mixture        reactingMixture;
    transport      sutherland;
    thermo         janaf;
    energy         sensibleEnthalpy;
    equationOfState perfectGas;
    specie         specie;
}

inertSpecie         N2;

chemistryReader     foamChemistryReader;

foamChemistryFile   "<constant>/reactions";

foamChemistryThermoFile "<constant>/thermo.compressibleGas";

mixture
{
    specie
    {
        nMoles          1;
    }
    thermodynamics
    {
        Hf              0;
        Cp              1000;
        Tref            298.15;
    }
    transport
    {
        As              1.67212e-6;
        Ts              170.672;
    }
    species
    (
        CH4
        O2
        CO2
        H2O
        N2
    );
}

reactionThermo   psiReactionThermo;