// -*- C++ -*-
// File generated by PyFoam - sorry for the ugliness

FoamFile
{
 version 2.0;
 format ascii;
 class dictionary;
 object controlDict;
}

application pimpleFoam;

startFrom latestTime;

startTime 0;

stopAt endTime;

endTime 0.0001;

deltaT 1e-05;

writeControl timeStep;

writeInterval 2;

purgeWrite 0;

writeFormat ascii;

writePrecision 6;

writeCompression no;
timeFormat general;

timePrecision 6;

runTimeModifiable yes;
adjustTimeStep yes;

libs
  (
    "libfieldFunctionObjects.so"
  );

maxCo 0.6;

