FoamFile
{
    version     2.0;
    format      ascii;
    class       volScalarField;
    object      alphat;
}

internalField   uniform 0;
boundaryField
{
    fuel
    {
        type            zeroGradient;
    }
    air
    {
        type            zeroGradient;
    }
    outlet
    {
        type            zeroGradient;
    }
    defaultFaces
    {
        type            empty;
    }
}
