FoamFile
{
    version     2.0;
    format      ascii;
    class       volScalarField;
    object      CH4;
}

internalField   uniform 0;
boundaryField
{
    fuel
    {
        type            fixedValue;
        value           uniform 1;
    }
    air
    {
        type            fixedValue;
        value           uniform 0;
    }
    outlet
    {
        type            inletOutlet;
        inletValue      uniform 1;
        value           uniform 0;
    }
    defaultFaces
    {
        type            empty;
    }
}
