FoamFile
{
    version     2.0;
    format      ascii;
    class       volScalarField;
    object      N2;
}

internalField   uniform 0.77;
boundaryField
{
    fuel
    {
        type            fixedValue;
        value           uniform 0;
    }
    air
    {
        type            fixedValue;
        value           uniform 0.77;
    }
    outlet
    {
        type            zeroGradient;
    }
    defaultFaces
    {
        type            empty;
    }
}
