FoamFile
{
    version     2.0;
    format      ascii;
    class       volVectorField;
    object      U;
}

internalField   uniform (0 0 0);
boundaryField
{
    fuel
    {
        type            fixedValue;
        value           uniform (0.1 0 0);
    }
    air
    {
        type            fixedValue;
        value           uniform (-0.1 0 0);
    }
    outlet
    {
        type            zeroGradient;
    }
    defaultFaces
    {
        type            empty;
    }
}
