FoamFile
{
    version     2.0;
    format      ascii;
    class       volScalarField;
    object      nut;
}

dimensions      [0 2 -1 0 0 0 0];

internalField   uniform 13.3;

boundaryField
{
    cylinder
    {
        type            symmetry;
        value           uniform 13.3;
    }
    left
    {
        type            zeroGradient;
    }
    right
    {
        type            zeroGradient;
    }
    up
    {
        type            symmetry;
    }
    down
    {
        type            symmetry;
    }
    defaultFaces
    {
        type            empty;
    }
}