FoamFile
{
    version     2.0;
    format      ascii;
    class       volScalarField;
    object      N2;
}

dimensions      [0 0 0 0 0 0 0];

internalField   uniform 1;

boundaryField
{
    fuel
    {
        type            fixedValue;
        value           uniform 0;
    }
    air
    {
        type            fixedValue;
        value           uniform 0.77;
    }
    outlet
    {
        type            zeroGradient;
    }
    frontAndBack
    {
        type            empty;
    }
}
