FoamFile
{
    version     2.0;
    format      ascii;
    class       dictionary;
    location    "constant";
    object      chemistryProperties;
}

chemistryType
{
    solver ode;
}

chemistry            on;
equilibrium          off;
energy               reacting;
relaxation           on;
relaxationFactor     1;
initialChemicalTimeStep 1e-07;

odeCoeffs
{
    solver Rosenbrock34;
    absTol 1e-12;
    relTol 0.01;
}