FoamFile
{
    version     2.0;
    format      ascii;
    class       dictionary;
    object      fvSolution;
}

solvers
{
    rho
    {
        solver          diagonal;
    }
    p
    {
        solver          GAMG;
        smoother        GaussSeidel;
        tolerance       1e-7;
        relTol          0.01;
        agglomerator    faceAreaPair;
        cacheAgglomeration true;
    }
    pFinal
    {
        $p;
        relTol          0;
    }
    "rho.*"
    {
        solver          diagonal;
    }
    U
    {
        solver          smoothSolver;
        smoother        symGaussSeidel;
        tolerance       1e-8;
        relTol          0.1;
    }
    h
    {
        $U;
    }
    hFinal
    {
        $h;
        relTol          0;
    }
    UFinal
    {
        $U;
        relTol          0;
    }
    Yi
    {
        solver          PBiCGStab;
        preconditioner  DILU;
        tolerance       1e-9;
        relTol          0;
    }
}

SIMPLE
{
    nNonOrthogonalCorrectors 0;
}

relaxationFactors
{
    fields
    {
        p               0.3;
    }
    equations
    {
        U               0.7;
        h               0.7;
        Yi              0.7;
    }
}