FoamFile
{
    version     2.0;
    format      ascii;
    class       volScalarField;
    object      p;
}

dimensions      [1 -1 -2 0 0 0 0];

internalField   uniform 1e5;

boundaryField
{
    fuel
    {
        type            zeroGradient;
    }
    air
    {
        type            zeroGradient;
    }
    outlet
    {
        type            fixedValue;
        value           uniform 1e5;
    }
    frontAndBack
    {
        type            empty;
    }
    fluid-1
    {
        type            processor;
    }
    interior-1
    {
        type            processor;
    }
}
