FoamFile
{
    version     2.0;
    format      ascii;
    class       dictionary;
    object      transportProperties;
}

transportModel  Maxwell;
rho             [1 -3 0 0 0 0 0] 1000;
nu              [0 2 -1 0 0 0 0] 0.01;
lambda          [0 0 1 0 0 0 0] 0.1;
