FoamFile
{
    version     2.0;
    format      ascii;
    class       volScalarField;
    object      nut;
}

dimensions      [0 2 -1 0 0 0 0];  

internalField   uniform 8.68e-6;

boundaryField
{
    inlet
    {
        type            fixedValue;
        value           uniform 8.68e-6;
    }
    outlet
    {
        type            inletOutlet;
        inletValue      uniform 8.68e-6;
        value           uniform 8.68e-6;
    }
    airfoil
    {
        type            nutLowReWallFunction;
        value           uniform 0;
    }
    front
    {
        type            empty;
    }
    back
    {
        type            empty;
    }
}