/*--------------------------------*- C++ -*----------------------------------*\
  =========                 |
  \\      /  F ield         | OpenFOAM: The Open Source CFD Toolbox
   \\    /   O peration     | Website:  https://openfoam.org
    \\  /    A nd           | Version:  10
     \\/     M anipulation  |
\*---------------------------------------------------------------------------*/
FoamFile
{
    format      ascii;
    class       polyBoundaryMesh;
    location    "constant/polyMesh";
    object      boundary;
}
// * * * * * * * * * * * * * * * * * * * * * * * * * * * * * * * * * * * * * //

4
(
    outlet
    {
        type            patch;
        nFaces          176;
        startFace       75600;
    }
    inlet
    {
        type            patch;
        nFaces          432;
        startFace       75776;
    }
    airfoil
    {
        type            wall;
        inGroups        List<word> 1(wall);
        nFaces          256;
        startFace       76208;
    }
    frontAndBackPlanes
    {
        type            empty;
        inGroups        List<word> 1(empty);
        nFaces          76032;
        startFace       76464;
    }
)

// ************************************************************************* //
