FoamFile
{
    version     2.0;
    format      ascii;
    class       volScalarField;
    object      nut;
}

dimensions [0 2 -1 0 0 0 0];

internalField uniform 2.61e-05;

boundaryField
{
    airfoil
    {
        type            nutUWallFunction;
        value           uniform 0;
    }
    inlet
    {
        type            freestream;
        freestreamValue uniform 2.61e-05;
    }
    outlet
    {
        type            freestream;
        freestreamValue uniform 2.61e-05;
        value           uniform 2.61e-05;
    }
}