FoamFile
{
    version     2.0;
    format      ascii;
    class       volSymmTensorField;
    object      sigma;
}

dimensions      [1 -1 -2 0 0 0 0];

internalField   uniform 0;

boundaryField
{
    wall
    {
        type            fixedValue;
        value           uniform 0;
    }
}
