FoamFile
{
    version     2.0;
    format      ascii;
    class       volScalarField;
    object      nuTilda;
}
dimensions      [0 2 -1 0 0 0 0];
internalField   uniform 8.675e-06;
boundaryField
{
    inlet
    {
        type            freestream;
        freestreamValue $internalField;
    }
    outlet
    {
        type            freestream;
        freestreamValue $internalField;
    }
    airfoil
    {
        type            fixedValue;
        value           uniform 0;
    }
}