FoamFile
{
    version     2.0;
    format      ascii;
    class       volVectorField;
    object      U;
}
dimensions      [0 1 -1 0 0 0 0];
internalField   uniform (52.05 0 0);
boundaryField
{
    inlet
    {
        type            freestreamVelocity;
        freestreamValue $internalField;
    }
    outlet
    {
        type            freestreamVelocity;
        freestreamValue $internalField;
    }
    airfoil
    {
        type            fixedValue;
        value           uniform (0 0 0);
    }
}