FoamFile
{
    version     2.0;
    format      ascii;
    class       volScalarField;
    object      epsilon;
}

internalField   uniform 0.001568;

boundaryField
{
    cylinder
    {
        type            epsilonWallFunction;
        value           uniform 0.001568;
    }
    down
    {
        type            fixedValue;
        value           uniform 0.001568;
    }
    left
    {
        type            fixedValue;
        value           uniform 0.001568;
    }
    right
    {
        type            fixedValue;
        value           uniform 0.001568;
    }
    up
    {
        type            fixedValue;
        value           uniform 0.001568;
    }
    defaultFaces
    {
        type            zeroGradient;
    }
}
