FoamFile
{
    version     2.0;
    format      ascii;
    class       dictionary;
    object      reactions;
}

species
(
    CH4
    O2
    CO2
    H2O
);

reactions
{
    methaneReaction
    {
        type    irreversibleArrheniusReaction;
        reaction "CH4 + 2O2 = CO2 + 2H2O";
        A       5.2e16;
        beta    0;
        Ta      14906;
    }
};