FoamFile
{
    version     2.0;
    format      ascii;
    class       volScalarField;
    object      nut;
}

dimensions      [0 2 -1 0 0 0 0];

internalField   uniform 4.34e-5;

boundaryField
{
    airfoil
    {
        type            nutLowReWallFunction;
        value           uniform 4.34e-5;
    }
    inlet
    {
        type            freestream;
        freestreamValue uniform 4.34e-5;
    }
    outlet
    {
        type            freestream;
        freestreamValue uniform 4.34e-5;
    }
    front
    {
        type            empty;
    }
    back
    {
        type            empty;
    }
}
