FoamFile
{
    version     2.0;
    format      ascii;
    class       volScalarField;
    object      omega;
}

dimensions      [0 0 -1 0 0 0 0];

internalField   uniform 1000;

boundaryField
{
    airfoil
    {
        type            omegaWallFunction;
        value           uniform 1000;
    }
    inlet
    {
        type            freestream;
        freestreamValue uniform 1000;
    }
    outlet
    {
        type            freestream;
        freestreamValue uniform 1000;
    }
    front
    {
        type            empty;
    }
    back
    {
        type            empty;
    }
}
