FoamFile
{
    version     2.0;
    format      ascii;
    class       dictionary;
    object      controlDict;
}

application     pimpleFoam;
startFrom       startTime;
startTime       0;
stopAt          endTime;
endTime         1;
deltaT          0.001;
writeControl    timeStep;
writeInterval   500;
purgeWrite      0;
writeFormat     binary;
writePrecision  6;
writeCompression off;
timeFormat      general;
timePrecision   6;
runTimeModifiable true;
functions
{
    #includeFunc transformPoints("scale=(1 1 0.1)")
}
