FoamFile
{
    version     2.0;
    format      ascii;
    class       uniformDimensionedScalarField;
    object      pRef;
}

value           1e5;
