FoamFile
{
    version     2.0;
    format      ascii;
    class       volScalarField;
    object      k;
}

dimensions      [0 2 -2 0 0 0 0];

internalField   uniform 0.01142;

boundaryField
{
    left        { type turbulentIntensityKineticEnergyInlet; intensity 3.22; value uniform 0.01142; }
    right       { type zeroGradient; }
    up          { type zeroGradient; }
    down        { type zeroGradient; }
    cylinder    { type kqRWallFunction; value uniform 0; }
    defaultFaces { type empty; }
}
