FoamFile
{
    version     2.0;
    format      ascii;
    class       volScalarField;
    object      nut;
}

dimensions      [0 2 -1 0 0 0 0];

internalField   uniform 0;

boundaryField
{
    left        { type calculated; value uniform 0; }
    right       { type calculated; value uniform 0; }
    up          { type calculated; value uniform 0; }
    down        { type calculated; value uniform 0; }
    cylinder    { type nutkWallFunction; value uniform 0; }
    defaultFaces { type empty; }
}
