FoamFile
{
    version     2.0;
    format      ascii;
    class       dictionary;
    object      chemistryProperties;
}

equilibrium           no;

chemistry             yes;

initialChemicalTimeStep 1e-4;

chemistryType
{
    solver          ode;
}

odeCoeffs
{
    solver          Rosenbrock34;
    absTol          1e-12;
    relTol          0.01;
}