FoamFile
{
    version     2.0;
    format      ascii;
    class       dictionary;
    object      combustionProperties;
}

active          true;

combustionModel laminar;

laminarCoeffs
{
}
