FoamFile
{
    version     2.0;
    format      ascii;
    class       chemistryReaction;
    object      reactions;
}

species ( CH4 O2 CO2 H2O N2 );

reactions
{
    reaction
    {
        type            irreversibleArrheniusReaction;
        reaction        "CH4 + 2O2 = CO2 + 2H2O";
        A               5.2e16;
        beta            0;
        Ta              14906;
    }
}

active               true;