FoamFile
{
    version     2.0;
    format      ascii;
    class       dictionary;
    object      thermophysicalProperties;
}

thermoType
{
    type            hePsiThermo;
    mixture        reactingMixture;
    transport       sutherland;
    thermo         janaf;
    energy         sensibleEnthalpy;
    equationOfState perfectGas;
    specie         specie;
}

species (CH4 O2 N2 CO2 H2O);

inertSpecie N2;

chemistryReader foamChemistryReader;

foamChemistryFile "<constant>/reactions";

foamChemistryThermoFile "<constant>/thermo.compressibleGas";

radiation
{
    radiationModel  none;
}