FoamFile
{
    version     2.0;
    format      ascii;
    class       dictionary;
    object      fvSolution;
}

solvers
{
    p
    {
        solver          GAMG;
        tolerance       1e-07;
        relTol          0.05;
    }
    p_rgh
    {
        solver          GAMG;
        tolerance       1e-07;
        relTol          0.05;
    }
    U
    {
        solver          smoothSolver;
        smoother        symGaussSeidel;
        tolerance       1e-08;
        relTol          0.1;
    }
    T
    {
        solver          PBiCGStab;
        preconditioner  DILU;
        tolerance       1e-08;
        relTol          0.1;
    }
    k
    {
        solver          PBiCGStab;
        preconditioner  DILU;
        tolerance       1e-08;
        relTol          0.1;
    }
    omega
    {
        solver          PBiCGStab;
        preconditioner  DILU;
        tolerance       1e-08;
        relTol          0.1;
    }
}

PIMPLE
{
    nOuterCorrectors 1;
    nNonOrthogonalCorrectors 2;
    pRefCell 0;
    pRefValue 1e5;
}

relaxationFactors
{
    fields
    {
        p               0.3;
        p_rgh           0.3;
    }
    equations
    {
        U               0.7;
        T               0.7;
        k               0.7;
        omega           0.7;
    }
}