FoamFile
{
    version     2.0;
    format      ascii;
    class       volScalarField;
    object      p;
}

dimensions      [0 2 -2 0 0 0 0];

internalField   uniform 101325;

boundaryField
{
    airfoil
    {
        type            zeroGradient;
    }

    inlet
    {
        type            freestreamPressure;
        freestreamValue uniform 101325;
    }

    outlet
    {
        type            freestreamPressure;
        freestreamValue uniform 101325;
    }
}
