FoamFile
{
    version     2.0;
    format      ascii;
    class       dictionary;
    object      fvSolution;
}

solvers
{
    p
    {
        solver PCG;
        preconditioner DIC;
        tolerance 1e-06;
        relTol 0.05;
    }

    U
    {
        solver PBiCGStab;
        preconditioner DILU;
        tolerance 1e-08;
        relTol 0.1;
    }

    nuTilda
    {
        solver PBiCGStab;
        preconditioner DILU;
        tolerance 1e-08;
        relTol 0.1;
    }
}

SIMPLE
{
    nNonOrthogonalCorrectors 0;
    consistent yes;

    residualControl
    {
        p 1e-5;
        U 1e-5;
        nuTilda 1e-5;
    }
}

relaxationFactors
{
    p 0.3;
    U 0.7;
}
