FoamFile
{
    version     2.0;
    format      ascii;
    class       volScalarField;
    object      nut;
}

dimensions      [0 2 -1 0 0 0 0];

internalField   uniform 0.00748;

boundaryField
{
    left
    {
        type            fixedValue;
        value           uniform 0.00748;
    }
    right
    {
        type            zeroGradient;
    }
    up
    {
        type            symmetry;
    }
    down
    {
        type            symmetry;
    }
    cylinder
    {
        type            symmetry;
        value           uniform 0.00748;
    }
    defaultFaces
    {
        type            empty;
    }
}