FoamFile
{
    version     2.0;
    format      ascii;
    class       dictionary;
    object      fvSolution;
}

solvers
{
    p
    {
        solver          GAMG;
        tolerance       1e-07;
        relTol          0.01;
        smoother        GaussSeidel;
    }
    pFinal { $p; tolerance 1e-06; relTol 0; }
    U
    {
        solver          smoothSolver;
        smoother        symGaussSeidel;
        tolerance       1e-08;
        relTol          0.1;
    }
    UFinal { $U; tolerance 1e-08; relTol 0; }
    k
    {
        solver          smoothSolver;
        smoother        symGaussSeidel;
        tolerance       1e-08;
        relTol          0.1;
    }
    kFinal { $k; tolerance 1e-08; relTol 0; }
    epsilon
    {
        solver          smoothSolver;
        smoother        symGaussSeidel;
        tolerance       1e-08;
        relTol          0.1;
    }
    epsilonFinal { $epsilon; tolerance 1e-08; relTol 0; }
    nut
    {
        solver          smoothSolver;
        smoother        symGaussSeidel;
        tolerance       1e-08;
        relTol          0.1;
    }
}

PIMPLE
{
    nOuterCorrectors 2;
    nCorrectors      3;
    nNonOrthogonalCorrectors 0;
    pRefCell        0;
    pRefValue       0;
}

relaxationFactors
{
    p               0.3;
    U               0.7;
    k               0.7;
    epsilon         0.7;
    nut             0.7;
}

residualControl
{
    p               1e-6;
    U               1e-6;
    k               1e-6;
    epsilon         1e-6;
}