FoamFile
{
    version     2.0;
    format      ascii;
    class       dictionary;
    object      chemistryProperties;
}

chemistryType
{
    solver EulerImplicit;
}

chemistry on;

initialChemicalTimeStep 1e-07;

EulerImplicitCoeffs
{
    cTauChem        1;
    equilibriumRateLimiter off;
}

odeCoeffs
{
    solver          Rosenbrock34;
    absTol          1e-12;
    relTol          0.01;
}