FoamFile
{
    version     2.0;
    format      ascii;
    class       dictionary;
    object      fvSolution;
}

solvers
{
    "rho.*"
    {
        solver          diagonal;
    }
    p
    {
        solver          PCG;
        preconditioner  DIC;
        tolerance       1e-7;
        relTol          0.05;
    }
    pFinal
    {
        $p;
        relTol          0;
    }
    "Yi.*"
    {
        solver          PBiCGStab;
        preconditioner  DILU;
        tolerance       1e-9;
        relTol          0;
    }
    h
    {
        solver          PBiCGStab;
        preconditioner  DILU;
        tolerance       1e-9;
        relTol          0;
    }
    hFinal
    {
        $h;
        relTol          0;
    }
    U
    {
        solver          PBiCGStab;
        preconditioner  DILU;
        tolerance       1e-9;
        relTol          0;
    }
    UFinal
    {
        $U;
        relTol          0;
    }
}

PISO
{
    nCorrectors     2;
    nNonOrthogonalCorrectors 0;
}