FoamFile
{
    version     2.0;
    format      ascii;
    class       volScalarField;
    object      k;
}

dimensions      [0 2 -2 0 0 0 0];

internalField   uniform 3.75e-04;

boundaryField
{
    hot
    {
        type        kqRWallFunction;
        value       uniform 3.75e-04;
    }
    cold
    {
        type        kqRWallFunction;
        value       uniform 3.75e-04;
    }
    topAndBottom
    {
        type        kqRWallFunction;
        value       uniform 3.75e-04;
    }
    frontAndBack
    {
        type        kqRWallFunction;
        value       uniform 3.75e-04;
    }
}