FoamFile
{
    version     2.0;
    format      ascii;
    class       volScalarField;
    object      nut;
}

dimensions      [0 2 -1 0 0 0 0];

internalField   uniform 1.83e-06;

boundaryField
{
    airfoil
    {
        type            nutLowReWallFunction;
        value           uniform 0;
    }
    inlet
    {
        type            calculated;
        value           uniform 1.83e-06;
    }
    outlet
    {
        type            calculated;
        value           uniform 1.83e-06;
    }
}